#HF
#sto-3g

*
0 1
 C                 -1.11816060    3.03359047   -1.13899438
 C                  0.27621065    3.03738769   -1.09224166
 C                  0.94862177    4.05352947   -0.41361002
 C                  0.22664609    5.06716147    0.21767269
 C                 -1.16737598    5.06355972    0.17048682
 C                 -1.83986730    4.04649491   -0.50755779
 H                 -1.64811908    2.23211455   -1.67371225
 H                  0.84487865    2.23826943   -1.58950266
 H                  2.04766152    4.05624545   -0.37618347
 H                  0.75703846    5.86828018    0.75263912
 H                 -2.93884859    4.04375351   -0.54445803
 C                 -7.16843402    5.60551615    1.79868497
 C                 -5.78289302    5.55901568    1.64188806
 C                 -5.13415559    6.53039181    0.87979233
 C                 -5.87115214    7.54821474    0.27308885
 C                 -7.25641098    7.59436855    0.42950109
 C                 -7.90508343    6.62318383    1.19267485
 H                 -7.67966515    4.83982818    2.39993990
 H                 -5.20233259    4.75701774    2.12041777
 H                 -5.35943314    8.31396613   -0.32779783
 H                 -7.83753239    8.39640089   -0.04853265
 H                 -8.99713287    6.65988224    1.31600471
 N                 -3.67420029    6.48196495    0.71521603
 N                 -1.92831517    6.13117903    0.83536316
*
